<?xml version="1.0" encoding="UTF-8"?>
<routes>
    <vType id="car" accel="2.5" decel="4.5" sigma="0.5" length="4.5" maxSpeed="13.89"/>
    <vType id="emergency" accel="3.0" decel="5.0" length="5.0" maxSpeed="16.67" vClass="emergency" color="1,0,0" gap="2.5"/>

    <trip id="car_0" type="car" depart="0.7" from="C4D4" to="A1A2" />
    <trip id="car_1" type="car" depart="6.5" from="D4C4" to="E2E3" />
    <trip id="car_2" type="car" depart="7.0" from="C2C1" to="D2E2" />
    <trip id="car_3" type="car" depart="7.4" from="D2E2" to="E3D3" />
    <trip id="car_4" type="car" depart="11.3" from="B4C4" to="B4B3" />
    <trip id="car_5" type="car" depart="14.8" from="E2D2" to="B3C3" />
    <trip id="car_6" type="car" depart="14.8" from="D0E0" to="B4A4" />
    <trip id="car_7" type="car" depart="18.1" from="A2A1" to="A3A4" />
    <trip id="car_8" type="car" depart="18.5" from="D3C3" to="B2A2" />
    <trip id="car_9" type="car" depart="22.4" from="B0B1" to="C3D3" />
    <trip id="car_10" type="car" depart="22.1" from="D1E1" to="D3C3" />
    <trip id="car_11" type="car" depart="25.0" from="B0C0" to="B4C4" />
    <trip id="car_12" type="car" depart="25.5" from="C1B1" to="C0D0" />
    <trip id="car_13" type="car" depart="27.9" from="B2B3" to="E1E2" />
    <trip id="car_14" type="car" depart="28.3" from="A2A3" to="A0A1" />
    <trip id="car_15" type="car" depart="30.9" from="E4E3" to="A3A4" />
    <trip id="car_16" type="car" depart="32.5" from="D4E4" to="D0D1" />
    <trip id="car_17" type="car" depart="36.7" from="B1A1" to="C2D2" />
    <trip id="car_18" type="car" depart="38.0" from="A2A1" to="E0E1" />
    <trip id="car_19" type="car" depart="41.5" from="E3E2" to="C1C0" />
    <trip id="car_20" type="car" depart="41.1" from="B1C1" to="B2B3" />
    <trip id="car_21" type="car" depart="42.6" from="A3A4" to="C1D1" />
    <trip id="car_22" type="car" depart="45.9" from="E1D1" to="B3B4" />
    <trip id="car_23" type="car" depart="47.4" from="A3A4" to="E1E0" />
    <trip id="car_24" type="car" depart="48.1" from="E0E1" to="C2C1" />
    <trip id="car_25" type="car" depart="53.1" from="A1B1" to="D3E3" />
    <trip id="car_26" type="car" depart="55.6" from="B3C3" to="C2C3" />
    <trip id="car_27" type="car" depart="58.5" from="E4D4" to="E4E3" />
    <trip id="car_28" type="car" depart="57.9" from="A4B4" to="D2E2" />
    <trip id="car_29" type="car" depart="61.4" from="E4D4" to="B2C2" />
    <trip id="car_30" type="car" depart="62.5" from="D3D4" to="D1C1" />
    <trip id="car_31" type="car" depart="65.8" from="A2A3" to="E3D3" />
    <trip id="car_32" type="car" depart="67.4" from="D0C0" to="A2A3" />
    <trip id="car_33" type="car" depart="67.9" from="A2A1" to="B2A2" />
    <trip id="car_34" type="car" depart="68.1" from="E0E1" to="B4B3" />
    <trip id="car_35" type="car" depart="74.3" from="C0D0" to="D1C1" />
    <trip id="car_36" type="car" depart="76.5" from="A2A3" to="D4D3" />
    <trip id="car_37" type="car" depart="76.8" from="C3C4" to="C2C1" />
    <trip id="car_38" type="car" depart="79.6" from="B1B0" to="D1E1" />
    <trip id="car_39" type="car" depart="79.3" from="B4B3" to="E1E2" />
    <trip id="car_40" type="car" depart="82.6" from="D3D4" to="C2B2" />
    <trip id="car_41" type="car" depart="85.4" from="B3B2" to="D3D2" />
    <trip id="car_42" type="car" depart="87.0" from="E1E0" to="A3A4" />
    <trip id="car_43" type="car" depart="87.9" from="C2D2" to="A1B1" />
    <trip id="car_44" type="car" depart="92.2" from="D4D3" to="D2E2" />
    <trip id="car_45" type="car" depart="94.8" from="E1D1" to="A2A1" />
    <trip id="car_46" type="car" depart="92.8" from="D3C3" to="A2A3" />
    <trip id="car_47" type="car" depart="96.0" from="C2B2" to="D4C4" />
    <trip id="car_48" type="car" depart="98.4" from="B4C4" to="D1C1" />
    <trip id="car_49" type="car" depart="101.7" from="C3B3" to="E1E0" />
    <trip id="car_50" type="car" depart="104.4" from="D4E4" to="E0D0" />
    <trip id="car_51" type="car" depart="105.0" from="D2E2" to="B2C2" />
    <trip id="car_52" type="car" depart="104.4" from="B0B1" to="B1A1" />
    <trip id="car_53" type="car" depart="109.6" from="A3A4" to="B3C3" />
    <trip id="car_54" type="car" depart="108.9" from="D0D1" to="C4B4" />
    <trip id="car_55" type="car" depart="112.2" from="A0B0" to="B3B2" />
    <trip id="car_56" type="car" depart="116.0" from="A2B2" to="D0C0" />
    <trip id="car_57" type="car" depart="116.6" from="C2B2" to="B3A3" />
    <trip id="car_58" type="car" depart="119.3" from="E4E3" to="C1C2" />
    <trip id="car_59" type="car" depart="121.2" from="E2E1" to="E3E4" />
    <trip id="car_60" type="car" depart="121.2" from="B1B0" to="D2D1" />
    <trip id="car_61" type="car" depart="124.2" from="D1D0" to="D3D2" />
    <trip id="car_62" type="car" depart="127.6" from="A3B3" to="E2D2" />
    <trip id="car_63" type="car" depart="128.4" from="B1B2" to="E4E3" />
    <trip id="car_64" type="car" depart="132.0" from="A4B4" to="B4B3" />
    <trip id="car_65" type="car" depart="130.5" from="B4A4" to="B3A3" />
    <trip id="car_66" type="car" depart="133.6" from="D3D4" to="D4E4" />
    <trip id="car_67" type="car" depart="137.0" from="B3A3" to="D1D2" />
    <trip id="car_68" type="car" depart="139.4" from="A2A3" to="C1C2" />
    <trip id="car_69" type="car" depart="142.9" from="C2B2" to="D3E3" />
    <trip id="car_70" type="car" depart="142.3" from="E2D2" to="E3E2" />
    <trip id="car_71" type="car" depart="145.5" from="D3E3" to="D1D0" />
    <trip id="car_72" type="car" depart="146.8" from="D3D4" to="B3A3" />
    <trip id="car_73" type="car" depart="147.3" from="D2E2" to="B2C2" />
    <trip id="car_74" type="car" depart="148.2" from="A3B3" to="B0A0" />
    <trip id="car_75" type="car" depart="152.2" from="D3D2" to="D1D0" />
    <trip id="car_76" type="car" depart="155.6" from="C4D4" to="B4C4" />
    <trip id="car_77" type="car" depart="157.7" from="A4B4" to="A1A2" />
    <trip id="car_78" type="car" depart="159.8" from="E3E2" to="C3C2" />
    <trip id="car_79" type="car" depart="160.2" from="E3D3" to="C3B3" />
    <trip id="car_80" type="car" depart="161.9" from="B0A0" to="C2C3" />
    <trip id="car_81" type="car" depart="164.3" from="B3B4" to="D0D1" />
    <trip id="car_82" type="car" depart="165.9" from="D0E0" to="A4B4" />
    <trip id="car_83" type="car" depart="166.0" from="B1A1" to="E2D2" />
    <trip id="car_84" type="car" depart="172.1" from="B3C3" to="C1C2" />
    <trip id="car_85" type="car" depart="174.5" from="C3C4" to="B0C0" />
    <trip id="car_86" type="car" depart="176.7" from="C1D1" to="D2E2" />
    <trip id="car_87" type="car" depart="178.1" from="E4D4" to="B1B0" />
    <trip id="car_88" type="car" depart="176.3" from="D2D1" to="A3A2" />
    <trip id="car_89" type="car" depart="179.5" from="E4E3" to="D0E0" />
    <trip id="car_90" type="car" depart="184.7" from="A3A2" to="B3B4" />
    <trip id="car_91" type="car" depart="183.1" from="D4E4" to="E3D3" />
    <trip id="car_92" type="car" depart="185.0" from="C3C2" to="A3A2" />
    <trip id="car_93" type="car" depart="190.8" from="D4E4" to="C0D0" />
    <trip id="car_94" type="car" depart="192.3" from="B0C0" to="D3C3" />
    <trip id="car_95" type="car" depart="194.9" from="E0E1" to="D1D0" />
    <trip id="car_96" type="car" depart="193.8" from="B2A2" to="B2B3" />
    <trip id="car_97" type="car" depart="195.8" from="D2C2" to="E0E1" />
    <trip id="car_98" type="car" depart="200.8" from="C1D1" to="A4A3" />
    <trip id="car_99" type="car" depart="199.6" from="A4A3" to="B0A0" />
    <trip id="car_100" type="car" depart="201.5" from="E1E2" to="D3E3" />
    <trip id="car_101" type="car" depart="206.3" from="A3A2" to="D4D3" />
    <trip id="car_102" type="car" depart="204.5" from="D2D1" to="D3E3" />
    <trip id="car_103" type="car" depart="208.5" from="E1E2" to="A1A0" />
    <trip id="car_104" type="car" depart="212.7" from="B3C3" to="D1D0" />
    <trip id="car_105" type="car" depart="214.2" from="B0A0" to="C2D2" />
    <trip id="car_106" type="car" depart="213.5" from="D3E3" to="E0D0" />
    <trip id="car_107" type="car" depart="218.6" from="B2C2" to="B4C4" />
    <trip id="car_108" type="car" depart="220.7" from="B1B0" to="D1D0" />
    <trip id="car_109" type="car" depart="218.3" from="D3D4" to="A4B4" />
    <trip id="car_110" type="car" depart="222.3" from="D3E3" to="B3B4" />
    <trip id="car_111" type="car" depart="225.3" from="C3B3" to="B1A1" />
    <trip id="car_112" type="car" depart="229.0" from="B2B1" to="B0A0" />
    <trip id="car_113" type="car" depart="229.9" from="D4E4" to="A4B4" />
    <trip id="car_114" type="car" depart="230.3" from="D2E2" to="E0E1" />
    <trip id="car_115" type="car" depart="231.8" from="B2B3" to="D0C0" />
    <trip id="car_116" type="car" depart="232.5" from="E3E2" to="A0B0" />
    <trip id="car_117" type="car" depart="238.7" from="C4B4" to="D1C1" />
    <trip id="car_118" type="car" depart="236.6" from="B1A1" to="D1C1" />
    <trip id="car_119" type="car" depart="239.9" from="B0C0" to="A4B4" />
    <trip id="car_120" type="car" depart="240.2" from="B2A2" to="C3D3" />
    <trip id="car_121" type="car" depart="242.2" from="E1D1" to="C0C1" />
    <trip id="car_122" type="car" depart="248.3" from="C1C2" to="B4A4" />
    <trip id="car_123" type="car" depart="250.0" from="E1D1" to="D4E4" />
    <trip id="car_124" type="car" depart="249.7" from="B3B2" to="D2C2" />
    <trip id="car_125" type="car" depart="250.7" from="D1C1" to="C0B0" />
    <trip id="car_126" type="car" depart="256.5" from="A0A1" to="D1D2" />
    <trip id="car_127" type="car" depart="254.9" from="B2C2" to="D4E4" />
    <trip id="car_128" type="car" depart="259.3" from="A3B3" to="D2D3" />
    <trip id="car_129" type="car" depart="261.6" from="E1D1" to="E0D0" />
    <trip id="car_130" type="car" depart="264.4" from="E3D3" to="C4D4" />
    <trip id="car_131" type="car" depart="266.2" from="C1C0" to="C2D2" />
    <trip id="car_132" type="car" depart="266.4" from="C2D2" to="E1E0" />
    <trip id="car_133" type="car" depart="270.8" from="A1A0" to="E2E3" />
    <trip id="car_134" type="car" depart="269.3" from="D1C1" to="A2B2" />
    <trip id="car_135" type="car" depart="272.1" from="A3A2" to="A0A1" />
    <trip id="car_136" type="car" depart="272.8" from="A2A1" to="B0A0" />
    <trip id="car_137" type="car" depart="274.5" from="E0E1" to="C3C2" />
    <trip id="car_138" type="car" depart="276.2" from="A1A2" to="C0D0" />
    <trip id="car_139" type="car" depart="278.0" from="B0B1" to="D2D1" />
    <trip id="car_140" type="car" depart="280.0" from="B0B1" to="A3A2" />
    <trip id="car_141" type="car" depart="286.9" from="A2A1" to="D0C0" />
    <trip id="car_142" type="car" depart="286.3" from="D3D4" to="C2B2" />
    <trip id="car_143" type="car" depart="289.0" from="B2B3" to="B1B0" />
    <trip id="car_144" type="car" depart="288.1" from="E3E2" to="B3B4" />
    <trip id="car_145" type="car" depart="292.5" from="C2B2" to="D1D0" />
    <trip id="car_146" type="car" depart="294.4" from="B3C3" to="A3A4" />
    <trip id="car_147" type="car" depart="296.7" from="C2D2" to="E3E2" />
    <trip id="car_148" type="car" depart="296.9" from="C3D3" to="B0A0" />
    <trip id="car_149" type="car" depart="298.5" from="B4A4" to="C2D2" />
    <trip id="car_150" type="car" depart="304.1" from="B3A3" to="D2C2" />
    <trip id="car_151" type="car" depart="306.7" from="A1A2" to="E3E2" />
    <trip id="car_152" type="car" depart="306.8" from="E4E3" to="A0A1" />
    <trip id="car_153" type="car" depart="309.8" from="A1A2" to="D0C0" />
    <trip id="car_154" type="car" depart="310.5" from="C4D4" to="A2B2" />
    <trip id="car_155" type="car" depart="310.7" from="A1A2" to="C4D4" />
    <trip id="car_156" type="car" depart="313.3" from="A2A1" to="D3E3" />
    <trip id="car_157" type="car" depart="318.1" from="B1B2" to="C3C4" />
    <trip id="car_158" type="car" depart="320.3" from="A1A0" to="B1C1" />
    <trip id="car_159" type="car" depart="321.9" from="A2A1" to="D1E1" />
    <trip id="car_160" type="car" depart="320.9" from="E3E2" to="C4D4" />
    <trip id="car_161" type="car" depart="323.4" from="C3C2" to="A3B3" />
    <trip id="car_162" type="car" depart="324.7" from="D0E0" to="D4C4" />
    <trip id="car_163" type="car" depart="330.9" from="B0A0" to="C2B2" />
    <trip id="car_164" type="car" depart="329.2" from="D4D3" to="A3A4" />
    <trip id="car_165" type="car" depart="331.6" from="A0A1" to="E3E4" />
    <trip id="car_166" type="car" depart="336.3" from="D2D1" to="E0E1" />
    <trip id="car_167" type="car" depart="334.8" from="C1C0" to="E3E4" />
    <trip id="car_168" type="car" depart="336.3" from="D2C2" to="E2E3" />
    <trip id="car_169" type="car" depart="339.5" from="C4C3" to="B1B0" />
    <trip id="car_170" type="car" depart="343.3" from="C0D0" to="A3A2" />
    <trip id="car_171" type="car" depart="344.4" from="C1B1" to="E2E1" />
    <trip id="car_172" type="car" depart="345.2" from="C0D0" to="E2E3" />
    <trip id="car_173" type="car" depart="346.5" from="B0C0" to="A4B4" />
    <trip id="car_174" type="car" depart="348.7" from="E1E0" to="C1B1" />
    <trip id="car_175" type="car" depart="353.8" from="B2C2" to="C1C2" />
    <trip id="car_176" type="car" depart="354.3" from="C2C3" to="D3C3" />
    <trip id="car_177" type="car" depart="358.0" from="B4A4" to="D2E2" />
    <trip id="car_178" type="car" depart="360.1" from="C1B1" to="D0D1" />
    <trip id="car_179" type="car" depart="359.2" from="D1D2" to="C2C3" />
    <trip id="car_180" type="car" depart="362.1" from="D0D1" to="B3B4" />
    <trip id="car_181" type="car" depart="364.4" from="E3D3" to="D3D4" />
    <trip id="car_182" type="car" depart="368.0" from="D4C4" to="D2C2" />
    <trip id="car_183" type="car" depart="366.7" from="D4C4" to="C3C4" />
    <trip id="car_184" type="car" depart="372.0" from="B4C4" to="E0D0" />
    <trip id="car_185" type="car" depart="372.5" from="C2C1" to="B2C2" />
    <trip id="car_186" type="car" depart="372.9" from="C0D0" to="D3C3" />
    <trip id="car_187" type="car" depart="374.6" from="B4B3" to="B1A1" />
    <trip id="car_188" type="car" depart="378.2" from="D2C2" to="D2D1" />
    <trip id="car_189" type="car" depart="381.1" from="E4D4" to="A4B4" />
    <trip id="car_190" type="car" depart="384.2" from="C3C4" to="C1C2" />
    <trip id="car_191" type="car" depart="383.4" from="A0B0" to="C3D3" />
    <trip id="car_192" type="car" depart="388.3" from="B2B1" to="A4A3" />
    <trip id="car_193" type="car" depart="387.1" from="E2D2" to="A3B3" />
    <trip id="car_194" type="car" depart="388.7" from="D2D3" to="B4B3" />
    <trip id="car_195" type="car" depart="392.2" from="E2E1" to="A1A0" />
    <trip id="car_196" type="car" depart="393.0" from="A0B0" to="B0C0" />
    <trip id="car_197" type="car" depart="396.6" from="C0D0" to="C0B0" />
    <trip id="car_198" type="car" depart="396.7" from="D1C1" to="B3C3" />
    <trip id="car_199" type="car" depart="400.9" from="B2C2" to="A0B0" />
    <trip id="car_200" type="car" depart="402.6" from="D0D1" to="E3E2" />
    <trip id="car_201" type="car" depart="406.0" from="C2C3" to="C4D4" />
    <trip id="car_202" type="car" depart="404.1" from="D4C4" to="E2D2" />
    <trip id="car_203" type="car" depart="407.7" from="A3B3" to="E1E2" />
    <trip id="car_204" type="car" depart="412.4" from="E4E3" to="B2B3" />
    <trip id="car_205" type="car" depart="410.1" from="E4E3" to="C4B4" />
    <trip id="car_206" type="car" depart="414.4" from="D1C1" to="C0B0" />
    <trip id="car_207" type="car" depart="417.2" from="D3D4" to="D1E1" />
    <trip id="car_208" type="car" depart="416.7" from="D3E3" to="C3C4" />
    <trip id="car_209" type="car" depart="422.5" from="B1C1" to="C1C0" />
    <trip id="car_210" type="car" depart="424.7" from="C3D3" to="B1B0" />
    <trip id="car_211" type="car" depart="425.5" from="E4E3" to="B3B4" />
    <trip id="car_212" type="car" depart="424.2" from="B2B1" to="A1A0" />
    <trip id="car_213" type="car" depart="428.1" from="B3C3" to="A2A1" />
    <trip id="car_214" type="car" depart="432.9" from="C2C1" to="C3C2" />
    <trip id="car_215" type="car" depart="433.4" from="B4C4" to="D3D4" />
    <trip id="car_216" type="car" depart="432.7" from="A4A3" to="E1E0" />
    <trip id="car_217" type="car" depart="438.7" from="D2C2" to="B1B2" />
    <trip id="car_218" type="car" depart="436.7" from="D2D1" to="A3B3" />
    <trip id="car_219" type="car" depart="440.5" from="D0D1" to="D4D3" />
    <trip id="car_220" type="car" depart="442.5" from="B2B3" to="E0D0" />
    <trip id="car_221" type="car" depart="443.1" from="C1C0" to="E0E1" />
    <trip id="car_222" type="car" depart="444.5" from="E1D1" to="E1E0" />
    <trip id="car_223" type="car" depart="446.4" from="D2D3" to="B3B4" />
    <trip id="car_224" type="car" depart="448.5" from="B1C1" to="E0E1" />
    <trip id="car_225" type="car" depart="451.0" from="C2C3" to="C3C2" />
    <trip id="car_226" type="car" depart="453.6" from="B1A1" to="D1C1" />
    <trip id="car_227" type="car" depart="455.6" from="B3A3" to="A3B3" />
    <trip id="car_228" type="car" depart="459.2" from="C3C4" to="D2C2" />
    <trip id="car_229" type="car" depart="458.4" from="D3E3" to="A1B1" />
    <trip id="car_230" type="car" depart="462.8" from="D3E3" to="E3E2" />
    <trip id="car_231" type="car" depart="465.5" from="E2E1" to="B1C1" />
    <trip id="car_232" type="car" depart="469.0" from="D2D3" to="D2D1" />
    <trip id="car_233" type="car" depart="468.3" from="D1C1" to="A4A3" />
    <trip id="car_234" type="car" depart="468.9" from="B3B4" to="C3D3" />
    <trip id="car_235" type="car" depart="473.9" from="E1E2" to="C4D4" />
    <trip id="car_236" type="car" depart="476.8" from="C3B3" to="C2D2" />
    <trip id="car_237" type="car" depart="476.2" from="D3E3" to="E2E1" />
    <trip id="car_238" type="car" depart="476.1" from="B1B0" to="D0E0" />
    <trip id="car_239" type="car" depart="482.9" from="D1C1" to="B4A4" />
    <trip id="car_240" type="car" depart="481.5" from="B1A1" to="A0B0" />
    <trip id="car_241" type="car" depart="483.7" from="A0B0" to="E1E0" />
    <trip id="car_242" type="car" depart="488.1" from="E0E1" to="C2C1" />
    <trip id="car_243" type="car" depart="490.1" from="B3A3" to="B2A2" />
    <trip id="car_244" type="car" depart="488.9" from="B3B2" to="E4D4" />
    <trip id="car_245" type="car" depart="494.4" from="B2A2" to="B3C3" />
    <trip id="car_246" type="car" depart="492.7" from="C4C3" to="A0A1" />
    <trip id="car_247" type="car" depart="494.2" from="C3C4" to="C3B3" />
    <trip id="car_248" type="car" depart="499.3" from="D3C3" to="B3B2" />
    <trip id="car_249" type="car" depart="501.5" from="D2D3" to="B1B0" />
    <trip id="car_250" type="car" depart="503.3" from="C0D0" to="B0B1" />
    <trip id="car_251" type="car" depart="506.3" from="E1E0" to="C2C3" />
    <trip id="car_252" type="car" depart="505.7" from="C1B1" to="C2D2" />
    <trip id="car_253" type="car" depart="509.4" from="E2E3" to="C2C1" />
    <trip id="car_254" type="car" depart="511.6" from="D2C2" to="C1D1" />
    <trip id="car_255" type="car" depart="512.0" from="D2D1" to="A4B4" />
    <trip id="car_256" type="car" depart="513.1" from="C2C3" to="E0D0" />
    <trip id="car_257" type="car" depart="516.9" from="D1C1" to="D4C4" />
    <trip id="car_258" type="car" depart="519.4" from="C2B2" to="E0D0" />
    <trip id="car_259" type="car" depart="522.1" from="C0C1" to="B3A3" />
    <trip id="car_260" type="car" depart="524.4" from="C0B0" to="D0D1" />
    <trip id="car_261" type="car" depart="523.4" from="B4C4" to="D0C0" />
    <trip id="car_262" type="car" depart="527.2" from="C1C0" to="E0D0" />
    <trip id="car_263" type="car" depart="530.4" from="C4B4" to="A1A2" />
    <trip id="car_264" type="car" depart="528.8" from="D1E1" to="A3A4" />
    <trip id="car_265" type="car" depart="534.5" from="E1E0" to="A3B3" />
    <trip id="car_266" type="car" depart="534.2" from="A4A3" to="D0C0" />
    <trip id="car_267" type="car" depart="534.2" from="D1D0" to="B2A2" />
    <trip id="car_268" type="car" depart="538.2" from="D0E0" to="E4E3" />
    <trip id="car_269" type="car" depart="539.5" from="C0C1" to="B2C2" />
    <trip id="car_270" type="car" depart="544.9" from="B0C0" to="B4A4" />
    <trip id="car_271" type="car" depart="542.1" from="B3A3" to="C1B1" />
    <trip id="car_272" type="car" depart="546.8" from="A2B2" to="B3A3" />
    <trip id="car_273" type="car" depart="548.0" from="A3A4" to="C1C0" />
    <trip id="car_274" type="car" depart="549.9" from="C0D0" to="D0D1" />
    <trip id="car_275" type="car" depart="551.1" from="B4A4" to="C1C0" />
    <trip id="car_276" type="car" depart="552.2" from="D3C3" to="E0D0" />
    <trip id="car_277" type="car" depart="555.6" from="D0D1" to="C0D0" />
    <trip id="car_278" type="car" depart="556.9" from="A0B0" to="E3E4" />
    <trip id="car_279" type="car" depart="562.4" from="B2A2" to="C2B2" />
    <trip id="car_280" type="car" depart="561.5" from="C1C2" to="C1B1" />
    <trip id="car_281" type="car" depart="566.0" from="E4D4" to="D1D2" />
    <trip id="car_282" type="car" depart="567.4" from="D2C2" to="E1D1" />
    <trip id="car_283" type="car" depart="569.0" from="C1C2" to="E3D3" />
    <trip id="car_284" type="car" depart="571.1" from="D2E2" to="A3B3" />
    <trip id="car_285" type="car" depart="572.9" from="B2B3" to="C1B1" />
    <trip id="car_286" type="car" depart="575.3" from="C2C3" to="C0C1" />
    <trip id="car_287" type="car" depart="575.2" from="A1B1" to="C0D0" />
    <trip id="car_288" type="car" depart="580.6" from="D1C1" to="D4D3" />
    <trip id="car_289" type="car" depart="581.0" from="D1E1" to="D3E3" />
    <trip id="car_290" type="car" depart="581.6" from="B1B0" to="B0B1" />
    <trip id="car_291" type="car" depart="582.5" from="B4C4" to="B4B3" />
    <trip id="car_292" type="car" depart="586.7" from="A0A1" to="E4E3" />
    <trip id="car_293" type="car" depart="586.6" from="E0E1" to="E2E1" />
    <trip id="car_294" type="car" depart="593.0" from="D1E1" to="A1B1" />
    <trip id="car_295" type="car" depart="594.4" from="B3A3" to="C2C3" />
    <trip id="car_296" type="car" depart="592.9" from="E3E4" to="C1C0" />
    <trip id="car_297" type="car" depart="594.7" from="A2A1" to="A3A4" />
    <trip id="car_298" type="car" depart="599.8" from="D1C1" to="D4D3" />
    <trip id="car_299" type="car" depart="602.7" from="B2A2" to="C3B3" />
    <trip id="car_300" type="car" depart="602.7" from="C1C2" to="B3B2" />
    <trip id="car_301" type="car" depart="604.3" from="D0D1" to="B0B1" />
    <trip id="car_302" type="car" depart="604.2" from="E0D0" to="C0C1" />
    <trip id="car_303" type="car" depart="607.6" from="C2C3" to="B3B2" />
    <trip id="car_304" type="car" depart="611.3" from="C3B3" to="E4D4" />
    <trip id="car_305" type="car" depart="611.9" from="D3C3" to="C4B4" />
    <trip id="car_306" type="car" depart="614.9" from="E0D0" to="C4B4" />
    <trip id="car_307" type="car" depart="616.4" from="B1B0" to="A2A3" />
    <trip id="car_308" type="car" depart="618.5" from="D3D2" to="B4C4" />
    <trip id="car_309" type="car" depart="621.2" from="B1B0" to="E1E2" />
    <trip id="car_310" type="car" depart="621.6" from="B2B1" to="A2A1" />
    <trip id="car_311" type="car" depart="626.1" from="A2B2" to="B2B1" />
    <trip id="car_312" type="car" depart="628.3" from="A4B4" to="A2A3" />
    <trip id="car_313" type="car" depart="629.5" from="C2C3" to="D3D2" />
    <trip id="car_314" type="car" depart="630.3" from="D1C1" to="A3B3" />
    <trip id="car_315" type="car" depart="634.9" from="D0D1" to="D1D0" />
    <trip id="car_316" type="car" depart="636.3" from="E3E2" to="C3D3" />
    <trip id="car_317" type="car" depart="636.4" from="B2A2" to="C3C4" />
    <trip id="car_318" type="car" depart="636.4" from="A0A1" to="E0E1" />
    <trip id="car_319" type="car" depart="639.6" from="A2A3" to="B4A4" />
    <trip id="car_320" type="car" depart="643.1" from="A3A2" to="B4C4" />
    <trip id="car_321" type="car" depart="645.7" from="E2E1" to="D0C0" />
    <trip id="car_322" type="car" depart="646.4" from="B2B1" to="B0B1" />
    <trip id="car_323" type="car" depart="650.8" from="E2D2" to="A2B2" />
    <trip id="car_324" type="car" depart="648.4" from="C0C1" to="D3D4" />
    <trip id="car_325" type="car" depart="653.9" from="B1B0" to="A4A3" />
    <trip id="car_326" type="car" depart="652.2" from="D1E1" to="A4B4" />
    <trip id="car_327" type="car" depart="658.2" from="C4C3" to="B1A1" />
    <trip id="car_328" type="car" depart="659.3" from="A3A4" to="A4A3" />
    <trip id="car_329" type="car" depart="659.4" from="E3D3" to="D0C0" />
    <trip id="car_330" type="car" depart="663.8" from="A1B1" to="D3D2" />
    <trip id="car_331" type="car" depart="666.8" from="D4D3" to="C0B0" />
    <trip id="car_332" type="car" depart="665.2" from="D0E0" to="C1C2" />
    <trip id="car_333" type="car" depart="666.1" from="D4E4" to="B1A1" />
    <trip id="car_334" type="car" depart="672.6" from="D1C1" to="D2D3" />
    <trip id="car_335" type="car" depart="674.6" from="D1D0" to="E1E2" />
    <trip id="car_336" type="car" depart="675.0" from="B1A1" to="B3A3" />
    <trip id="car_337" type="car" depart="676.4" from="A1A0" to="A2A1" />
    <trip id="car_338" type="car" depart="680.5" from="A3A2" to="C1C2" />
    <trip id="car_339" type="car" depart="681.7" from="C1D1" to="B2B1" />
    <trip id="car_340" type="car" depart="684.1" from="C2C3" to="A4B4" />
    <trip id="car_341" type="car" depart="686.0" from="B1B0" to="A2A3" />
    <trip id="car_342" type="car" depart="686.3" from="E3E4" to="B2B3" />
    <trip id="car_343" type="car" depart="688.8" from="C1C0" to="E3E4" />
    <trip id="car_344" type="car" depart="688.8" from="C4D4" to="B1B2" />
    <trip id="car_345" type="car" depart="690.2" from="D1D2" to="A1A2" />
    <trip id="car_346" type="car" depart="692.4" from="D0E0" to="D4C4" />
    <trip id="car_347" type="car" depart="694.1" from="D3D4" to="B2C2" />
    <trip id="car_348" type="car" depart="697.7" from="B2C2" to="A3B3" />
    <trip id="car_349" type="car" depart="700.3" from="C2D2" to="E4E3" />
    <trip id="car_350" type="car" depart="702.6" from="E3D3" to="A1A2" />
    <trip id="car_351" type="car" depart="704.3" from="B2B3" to="B1A1" />
    <trip id="car_352" type="car" depart="705.7" from="A2B2" to="C2C3" />
    <trip id="car_353" type="car" depart="708.3" from="C4D4" to="B0B1" />
    <trip id="car_354" type="car" depart="708.6" from="C1C0" to="A3A2" />
    <trip id="car_355" type="car" depart="713.6" from="E1D1" to="C4D4" />
    <trip id="car_356" type="car" depart="716.9" from="D1D0" to="E1D1" />
    <trip id="car_357" type="car" depart="717.4" from="D2D1" to="E0E1" />
    <trip id="car_358" type="car" depart="717.0" from="B1B0" to="C3B3" />
    <trip id="car_359" type="car" depart="722.4" from="E4E3" to="E1E0" />
    <trip id="car_360" type="car" depart="722.0" from="D1E1" to="B4A4" />
    <trip id="car_361" type="car" depart="722.1" from="B3A3" to="D3D4" />
    <trip id="car_362" type="car" depart="726.7" from="B3B2" to="D1E1" />
    <trip id="car_363" type="car" depart="727.1" from="C2D2" to="E3E4" />
    <trip id="car_364" type="car" depart="730.2" from="A4A3" to="D1E1" />
    <trip id="car_365" type="car" depart="733.8" from="E3D3" to="D2D3" />
    <trip id="car_366" type="car" depart="735.4" from="C4B4" to="A1A2" />
    <trip id="car_367" type="car" depart="734.4" from="D2D3" to="D2D1" />
    <trip id="car_368" type="car" depart="737.0" from="E2E3" to="D2D1" />
    <trip id="car_369" type="car" depart="738.1" from="A3B3" to="C0C1" />
    <trip id="car_370" type="car" depart="740.8" from="B3A3" to="D0C0" />
    <trip id="car_371" type="car" depart="744.9" from="D3E3" to="D0C0" />
    <trip id="car_372" type="car" depart="745.7" from="D2D3" to="D1E1" />
    <trip id="car_373" type="car" depart="747.0" from="C1C2" to="B0C0" />
    <trip id="car_374" type="car" depart="750.0" from="B2A2" to="C1C0" />
    <trip id="emergency_0" type="emergency" depart="50.0" from="A2B2" to="A4B4" />
    <trip id="emergency_1" type="emergency" depart="150.0" from="B3C3" to="C3C2" />
    <trip id="emergency_2" type="emergency" depart="250.0" from="D2D1" to="A1A0" />
    <trip id="emergency_3" type="emergency" depart="350.0" from="B1B2" to="C4C3" />
    <trip id="emergency_4" type="emergency" depart="450.0" from="E2E3" to="E0E1" />
    <trip id="emergency_5" type="emergency" depart="550.0" from="A3A2" to="B0A0" />
    <trip id="emergency_6" type="emergency" depart="650.0" from="B3C3" to="D3E3" />
    <trip id="emergency_7" type="emergency" depart="750.0" from="D3D2" to="D4C4" />
    <trip id="emergency_8" type="emergency" depart="850.0" from="B3A3" to="B3B4" />
    <trip id="emergency_9" type="emergency" depart="950.0" from="D3E3" to="B0A0" />
    <trip id="emergency_10" type="emergency" depart="1050.0" from="C3D3" to="A1B1" />
    <trip id="emergency_11" type="emergency" depart="1150.0" from="B2B3" to="E4D4" />
    <trip id="emergency_12" type="emergency" depart="1250.0" from="C3B3" to="C1B1" />
    <trip id="emergency_13" type="emergency" depart="1350.0" from="E3D3" to="D3D2" />
    <trip id="emergency_14" type="emergency" depart="1450.0" from="B3B2" to="A4A3" />
    <trip id="emergency_15" type="emergency" depart="1550.0" from="D2D3" to="E3E2" />
    <trip id="emergency_16" type="emergency" depart="1650.0" from="B2B3" to="D0C0" />
    <trip id="emergency_17" type="emergency" depart="1750.0" from="C3D3" to="A2A3" />
</routes>
