<?xml version="1.0" encoding="UTF-8"?>
<routes>
    <vType id="car" accel="2.5" decel="4.5" sigma="0.5" length="4.5" maxSpeed="13.89"/>
    <vType id="emergency" accel="3.0" decel="5.0" length="5.0" maxSpeed="16.67" vClass="emergency" color="1,0,0" gap="2.5"/>

    <trip id="car_0" type="car" depart="2.9" from="B2C2" to="C1D1" />
    <trip id="car_1" type="car" depart="2.6" from="C2D2" to="C0D0" />
    <trip id="car_2" type="car" depart="7.7" from="B1B2" to="A2B2" />
    <trip id="car_3" type="car" depart="6.8" from="C1C2" to="A1B1" />
    <trip id="car_4" type="car" depart="8.4" from="B1C1" to="C2C1" />
    <trip id="car_5" type="car" depart="11.8" from="A0B0" to="C0C1" />
    <trip id="car_6" type="car" depart="13.3" from="C2B2" to="B2B1" />
    <trip id="car_7" type="car" depart="16.2" from="C0D0" to="C1C2" />
    <trip id="car_8" type="car" depart="18.0" from="D2C2" to="D0D1" />
    <trip id="car_9" type="car" depart="21.8" from="C2D2" to="B1B0" />
    <trip id="car_10" type="car" depart="23.4" from="D0C0" to="A1A2" />
    <trip id="car_11" type="car" depart="26.3" from="B1C1" to="D0C0" />
    <trip id="car_12" type="car" depart="28.0" from="C0B0" to="A0A1" />
    <trip id="car_13" type="car" depart="27.4" from="B2A2" to="C0D0" />
    <trip id="car_14" type="car" depart="31.2" from="A0A1" to="C1C0" />
    <trip id="car_15" type="car" depart="31.9" from="D1D0" to="C1C2" />
    <trip id="car_16" type="car" depart="36.1" from="D0D1" to="D2C2" />
    <trip id="car_17" type="car" depart="36.2" from="C1C2" to="C1C0" />
    <trip id="car_18" type="car" depart="38.0" from="A2B2" to="B1A1" />
    <trip id="car_19" type="car" depart="38.8" from="C1B1" to="B0B1" />
    <trip id="car_20" type="car" depart="42.8" from="C2B2" to="A0B0" />
    <trip id="car_21" type="car" depart="42.0" from="B0B1" to="B2A2" />
    <trip id="car_22" type="car" depart="44.7" from="C0D0" to="A1A2" />
    <trip id="car_23" type="car" depart="49.6" from="C1D1" to="D1D2" />
    <trip id="car_24" type="car" depart="50.4" from="B1A1" to="B2A2" />
    <trip id="car_25" type="car" depart="51.0" from="B2C2" to="C1B1" />
    <trip id="car_26" type="car" depart="53.9" from="B1B0" to="D0C0" />
    <trip id="car_27" type="car" depart="56.7" from="A1B1" to="B1A1" />
    <trip id="car_28" type="car" depart="58.5" from="D0C0" to="C2B2" />
    <trip id="car_29" type="car" depart="60.8" from="A1B1" to="B2A2" />
    <trip id="car_30" type="car" depart="60.1" from="B2C2" to="C2B2" />
    <trip id="car_31" type="car" depart="64.5" from="A1A0" to="C1D1" />
    <trip id="car_32" type="car" depart="67.2" from="A1A2" to="C1D1" />
    <trip id="car_33" type="car" depart="70.6" from="A1A0" to="C2D2" />
    <trip id="car_34" type="car" depart="68.9" from="B1B0" to="B2A2" />
    <trip id="car_35" type="car" depart="74.5" from="D0D1" to="D1D2" />
    <trip id="car_36" type="car" depart="75.6" from="D2C2" to="C0C1" />
    <trip id="car_37" type="car" depart="76.8" from="C0C1" to="C1C0" />
    <trip id="car_38" type="car" depart="77.5" from="C2B2" to="D1D0" />
    <trip id="car_39" type="car" depart="78.9" from="A1B1" to="D1C1" />
    <trip id="car_40" type="car" depart="82.1" from="D1D0" to="A2B2" />
    <trip id="car_41" type="car" depart="85.3" from="A1A2" to="C1B1" />
    <trip id="car_42" type="car" depart="88.5" from="D2C2" to="D1D2" />
    <trip id="car_43" type="car" depart="89.3" from="B1B0" to="A1A0" />
    <trip id="car_44" type="car" depart="90.2" from="C2B2" to="D1C1" />
    <trip id="car_45" type="car" depart="90.9" from="B1B0" to="B0A0" />
    <trip id="car_46" type="car" depart="95.8" from="A0B0" to="A1B1" />
    <trip id="car_47" type="car" depart="95.4" from="C0C1" to="C1C2" />
    <trip id="car_48" type="car" depart="99.4" from="D1D0" to="C0B0" />
    <trip id="car_49" type="car" depart="103.0" from="B2C2" to="A1A2" />
    <trip id="car_50" type="car" depart="100.7" from="A2A1" to="D2C2" />
    <trip id="car_51" type="car" depart="102.1" from="C2D2" to="C1B1" />
    <trip id="car_52" type="car" depart="107.7" from="B0C0" to="B2C2" />
    <trip id="car_53" type="car" depart="106.7" from="B1A1" to="B2B1" />
    <trip id="car_54" type="car" depart="108.6" from="C0B0" to="B2B1" />
    <trip id="car_55" type="car" depart="112.6" from="B1A1" to="B0C0" />
    <trip id="car_56" type="car" depart="114.2" from="D1D0" to="B2C2" />
    <trip id="car_57" type="car" depart="117.4" from="D2D1" to="D0D1" />
    <trip id="car_58" type="car" depart="118.8" from="C2C1" to="B1A1" />
    <trip id="car_59" type="car" depart="118.2" from="D1D2" to="C1C0" />
    <trip id="car_60" type="car" depart="124.7" from="D2C2" to="A1A0" />
    <trip id="car_61" type="car" depart="122.5" from="A1A0" to="B2B1" />
    <trip id="car_62" type="car" depart="128.1" from="C2B2" to="D0C0" />
    <trip id="car_63" type="car" depart="127.1" from="A0B0" to="A1A2" />
    <trip id="car_64" type="car" depart="130.2" from="D1D0" to="A2B2" />
    <trip id="car_65" type="car" depart="132.8" from="C1C2" to="B2B1" />
    <trip id="car_66" type="car" depart="132.8" from="B0A0" to="A0A1" />
    <trip id="car_67" type="car" depart="137.5" from="D1D2" to="A1B1" />
    <trip id="car_68" type="car" depart="138.3" from="C2D2" to="D1D2" />
    <trip id="car_69" type="car" depart="139.0" from="B0A0" to="B2C2" />
    <trip id="car_70" type="car" depart="143.8" from="B0C0" to="D0C0" />
    <trip id="car_71" type="car" depart="142.4" from="B1B2" to="B2C2" />
    <trip id="car_72" type="car" depart="144.7" from="B2A2" to="B2B1" />
    <trip id="car_73" type="car" depart="146.4" from="B1C1" to="A0B0" />
    <trip id="car_74" type="car" depart="152.7" from="A1A2" to="B1A1" />
    <trip id="car_75" type="car" depart="155.0" from="D0D1" to="C0C1" />
    <trip id="car_76" type="car" depart="156.0" from="B2A2" to="B0C0" />
    <trip id="car_77" type="car" depart="155.8" from="B1C1" to="C2C1" />
    <trip id="car_78" type="car" depart="156.6" from="C1B1" to="D1C1" />
    <trip id="car_79" type="car" depart="162.5" from="A2A1" to="D2D1" />
    <trip id="car_80" type="car" depart="162.0" from="C2C1" to="B1B0" />
    <trip id="car_81" type="car" depart="162.4" from="A0A1" to="C1B1" />
    <trip id="car_82" type="car" depart="164.4" from="C2D2" to="C1C2" />
    <trip id="car_83" type="car" depart="170.3" from="B1C1" to="A1A0" />
    <trip id="emergency_0" type="emergency" depart="50.0" from="B2A2" to="A2B2" />
    <trip id="emergency_1" type="emergency" depart="150.0" from="D1D0" to="B1C1" />
    <trip id="emergency_2" type="emergency" depart="250.0" from="C2D2" to="A1A2" />
    <trip id="emergency_3" type="emergency" depart="350.0" from="C2D2" to="C0C1" />
</routes>
