<?xml version="1.0" encoding="UTF-8"?>
<routes>
    <vType id="car" accel="2.5" decel="4.5" sigma="0.5" length="4.5" maxSpeed="14.0"/>
    <vType id="truck" accel="1.0" decel="3.5" sigma="0.5" length="7.0" maxSpeed="11.0" vClass="truck"/>
    <vType id="emergency" accel="3.0" decel="4.5" length="5.0" maxSpeed="20.0" vClass="emergency" guiShape="emergency" color="red"/>

    <trip id="car_0" type="car" depart="289.8" from="south_in" to="west_out" />
    <trip id="car_1" type="car" depart="271.5" from="east_out" to="north_out" />
    <trip id="car_2" type="car" depart="422.3" from="south_out" to="east_in" />
    <trip id="car_3" type="car" depart="357.9" from="north_in" to="west_out" />
    <trip id="car_4" type="car" depart="1.5" from="north_in" to="west_in" />
    <trip id="car_5" type="car" depart="256.1" from="south_in" to="east_out" />
    <trip id="car_6" type="car" depart="242.3" from="west_out" to="south_in" />
    <trip id="car_7" type="car" depart="225.7" from="north_in" to="south_in" />
    <trip id="car_8" type="car" depart="136.1" from="north_in" to="west_in" />
    <trip id="car_9" type="car" depart="362.0" from="north_out" to="west_in" />
    <trip id="car_10" type="car" depart="588.3" from="north_in" to="west_out" />
    <trip id="car_11" type="car" depart="260.0" from="west_in" to="south_in" />
    <trip id="car_12" type="car" depart="113.3" from="west_out" to="east_in" />
    <trip id="car_13" type="car" depart="265.3" from="east_out" to="east_in" />
    <trip id="car_14" type="car" depart="12.0" from="south_in" to="east_in" />
    <trip id="car_15" type="car" depart="293.5" from="west_out" to="south_out" />
    <trip id="car_16" type="car" depart="116.2" from="south_out" to="north_out" />
    <trip id="car_17" type="car" depart="113.6" from="south_out" to="east_out" />
    <trip id="car_18" type="car" depart="136.8" from="south_in" to="south_out" />
    <trip id="car_19" type="car" depart="67.5" from="west_out" to="north_out" />
    <trip id="car_20" type="car" depart="479.6" from="east_in" to="north_out" />
    <trip id="car_21" type="car" depart="347.0" from="south_out" to="south_in" />
    <trip id="car_22" type="car" depart="545.9" from="north_out" to="east_out" />
    <trip id="car_23" type="car" depart="481.6" from="west_out" to="south_out" />
    <trip id="car_24" type="car" depart="137.2" from="east_out" to="south_out" />
    <trip id="car_25" type="car" depart="65.9" from="west_out" to="east_out" />
    <trip id="car_26" type="car" depart="30.2" from="south_out" to="north_in" />
    <trip id="car_27" type="car" depart="210.6" from="east_out" to="west_in" />
    <trip id="car_28" type="car" depart="213.3" from="east_in" to="east_out" />
    <trip id="car_29" type="car" depart="564.2" from="south_out" to="east_in" />
    <trip id="car_30" type="car" depart="75.1" from="north_out" to="west_in" />
    <trip id="car_31" type="car" depart="404.8" from="east_in" to="south_out" />
    <trip id="car_32" type="car" depart="228.6" from="west_out" to="south_in" />
    <trip id="car_33" type="car" depart="294.2" from="north_out" to="north_in" />
    <trip id="car_34" type="car" depart="113.9" from="west_in" to="north_in" />
    <trip id="car_35" type="car" depart="283.6" from="west_out" to="east_in" />
    <trip id="car_36" type="car" depart="491.7" from="south_out" to="west_in" />
    <trip id="car_37" type="car" depart="595.6" from="north_in" to="east_in" />
    <trip id="car_38" type="car" depart="3.1" from="west_out" to="south_in" />
    <trip id="car_39" type="car" depart="366.4" from="west_out" to="north_out" />
    <trip id="car_40" type="car" depart="132.2" from="east_out" to="south_out" />
    <trip id="car_41" type="car" depart="307.0" from="west_out" to="north_out" />
    <trip id="car_42" type="car" depart="376.5" from="north_in" to="west_in" />
    <trip id="car_43" type="car" depart="350.6" from="north_out" to="north_in" />
    <trip id="car_44" type="car" depart="132.4" from="east_out" to="south_out" />
    <trip id="car_45" type="car" depart="366.8" from="east_out" to="south_out" />
    <trip id="car_46" type="car" depart="310.7" from="north_in" to="south_in" />
    <trip id="car_47" type="car" depart="586.0" from="south_out" to="north_in" />
    <trip id="car_48" type="car" depart="530.3" from="west_in" to="north_out" />
    <trip id="car_49" type="car" depart="113.8" from="west_out" to="north_out" />
    <trip id="car_50" type="car" depart="2.9" from="east_out" to="east_in" />
    <trip id="car_51" type="car" depart="83.7" from="north_out" to="south_out" />
    <trip id="car_52" type="car" depart="289.9" from="south_out" to="west_in" />
    <trip id="car_53" type="car" depart="111.4" from="south_in" to="north_out" />
    <trip id="car_54" type="car" depart="339.9" from="east_in" to="west_in" />
    <trip id="car_55" type="car" depart="290.1" from="south_in" to="west_in" />
    <trip id="car_56" type="car" depart="286.7" from="south_out" to="north_out" />
    <trip id="car_57" type="car" depart="167.7" from="east_in" to="north_out" />
    <trip id="car_58" type="car" depart="344.8" from="north_out" to="south_out" />
    <trip id="car_59" type="car" depart="104.0" from="west_in" to="south_in" />
    <trip id="car_60" type="car" depart="553.2" from="west_in" to="north_in" />
    <trip id="car_61" type="car" depart="576.7" from="west_out" to="east_in" />
    <trip id="car_62" type="car" depart="13.9" from="south_in" to="north_out" />
    <trip id="car_63" type="car" depart="439.7" from="east_in" to="west_out" />
    <trip id="car_64" type="car" depart="480.4" from="south_in" to="east_in" />
    <trip id="car_65" type="car" depart="17.7" from="north_out" to="south_out" />
    <trip id="car_66" type="car" depart="420.6" from="west_in" to="west_out" />
    <trip id="car_67" type="car" depart="370.4" from="south_out" to="north_out" />
    <trip id="car_68" type="car" depart="411.7" from="east_in" to="north_out" />
    <trip id="car_69" type="car" depart="17.6" from="north_out" to="north_in" />
    <trip id="car_70" type="car" depart="391.4" from="south_out" to="south_in" />
    <trip id="car_71" type="car" depart="221.0" from="east_out" to="west_out" />
    <trip id="car_72" type="car" depart="404.0" from="west_out" to="south_out" />
    <trip id="car_73" type="car" depart="184.0" from="east_in" to="east_out" />
    <trip id="car_74" type="car" depart="314.9" from="west_in" to="east_in" />
    <trip id="car_75" type="car" depart="303.0" from="north_in" to="south_in" />
    <trip id="car_76" type="car" depart="492.7" from="north_in" to="west_out" />
    <trip id="car_77" type="car" depart="95.9" from="south_in" to="north_in" />
    <trip id="car_78" type="car" depart="175.7" from="south_out" to="west_out" />
    <trip id="car_79" type="car" depart="564.7" from="west_in" to="south_in" />
    <trip id="car_80" type="car" depart="406.9" from="south_out" to="north_out" />
    <trip id="car_81" type="car" depart="568.7" from="south_out" to="east_in" />
    <trip id="car_82" type="car" depart="2.6" from="south_out" to="south_in" />
    <trip id="car_83" type="car" depart="478.8" from="west_in" to="south_out" />
    <trip id="car_84" type="car" depart="93.6" from="west_out" to="west_in" />
    <trip id="car_85" type="car" depart="176.8" from="east_in" to="east_out" />
    <trip id="car_86" type="car" depart="598.6" from="south_out" to="north_out" />
    <trip id="car_87" type="car" depart="163.9" from="east_in" to="west_out" />
    <trip id="car_88" type="car" depart="422.0" from="south_in" to="east_out" />
    <trip id="car_89" type="car" depart="249.6" from="east_out" to="north_out" />
    <trip id="car_90" type="car" depart="46.7" from="north_in" to="south_in" />
    <trip id="car_91" type="car" depart="63.5" from="east_in" to="east_out" />
    <trip id="car_92" type="car" depart="26.4" from="west_out" to="south_in" />
    <trip id="car_93" type="car" depart="580.4" from="south_out" to="north_in" />
    <trip id="car_94" type="car" depart="203.5" from="south_out" to="east_in" />
    <trip id="car_95" type="car" depart="19.5" from="north_out" to="east_out" />
    <trip id="car_96" type="car" depart="18.2" from="west_in" to="east_in" />
    <trip id="car_97" type="car" depart="171.5" from="east_out" to="west_in" />
    <trip id="car_98" type="car" depart="447.6" from="east_out" to="west_out" />
    <trip id="car_99" type="car" depart="141.4" from="north_out" to="west_out" />
    <trip id="car_100" type="car" depart="220.4" from="south_out" to="east_out" />
    <trip id="car_101" type="car" depart="28.2" from="north_out" to="south_out" />
    <trip id="car_102" type="car" depart="452.4" from="south_out" to="west_in" />
    <trip id="car_103" type="car" depart="283.9" from="north_out" to="east_out" />
    <trip id="car_104" type="car" depart="215.6" from="east_out" to="south_in" />
    <trip id="car_105" type="car" depart="278.2" from="west_out" to="north_in" />
    <trip id="car_106" type="car" depart="25.3" from="south_out" to="north_out" />
    <trip id="car_107" type="car" depart="246.2" from="east_in" to="south_out" />
    <trip id="car_108" type="car" depart="95.1" from="west_in" to="south_out" />
    <trip id="car_109" type="car" depart="494.1" from="west_in" to="north_out" />
    <trip id="car_110" type="car" depart="157.9" from="south_out" to="east_out" />
    <trip id="car_111" type="car" depart="445.6" from="west_in" to="east_out" />
    <trip id="car_112" type="car" depart="518.9" from="south_in" to="north_out" />
    <trip id="car_113" type="car" depart="161.8" from="north_in" to="west_out" />
    <trip id="car_114" type="car" depart="425.6" from="south_out" to="west_in" />
    <trip id="car_115" type="car" depart="574.2" from="south_in" to="north_out" />
    <trip id="car_116" type="car" depart="425.8" from="west_in" to="west_out" />
    <trip id="car_117" type="car" depart="148.8" from="north_out" to="south_in" />
    <trip id="car_118" type="car" depart="353.7" from="north_out" to="north_in" />
    <trip id="car_119" type="car" depart="533.6" from="west_out" to="east_in" />
    <trip id="car_120" type="car" depart="238.8" from="west_out" to="south_out" />
    <trip id="car_121" type="car" depart="546.4" from="east_in" to="west_in" />
    <trip id="car_122" type="car" depart="395.9" from="south_in" to="east_in" />
    <trip id="car_123" type="car" depart="147.6" from="north_in" to="south_out" />
    <trip id="car_124" type="car" depart="87.0" from="west_out" to="south_out" />
    <trip id="car_125" type="car" depart="455.9" from="south_out" to="east_out" />
    <trip id="car_126" type="car" depart="240.8" from="south_out" to="west_in" />
    <trip id="car_127" type="car" depart="214.3" from="north_in" to="south_out" />
    <trip id="car_128" type="car" depart="552.2" from="east_in" to="west_in" />
    <trip id="car_129" type="car" depart="461.9" from="west_out" to="north_in" />
    <trip id="car_130" type="car" depart="438.1" from="east_in" to="south_in" />
    <trip id="car_131" type="car" depart="66.0" from="east_in" to="north_in" />
    <trip id="car_132" type="car" depart="18.6" from="east_in" to="north_in" />
    <trip id="car_133" type="car" depart="176.7" from="north_in" to="south_in" />
    <trip id="car_134" type="car" depart="312.3" from="south_out" to="south_in" />
    <trip id="car_135" type="car" depart="134.0" from="west_out" to="south_in" />
    <trip id="car_136" type="car" depart="167.3" from="south_in" to="south_out" />
    <trip id="car_137" type="car" depart="194.6" from="south_out" to="west_in" />
    <trip id="car_138" type="car" depart="59.8" from="south_out" to="north_in" />
    <trip id="car_139" type="car" depart="292.2" from="north_in" to="south_in" />
    <trip id="car_140" type="car" depart="260.0" from="north_in" to="south_in" />
    <trip id="car_141" type="car" depart="76.1" from="north_in" to="west_in" />
    <trip id="car_142" type="car" depart="472.5" from="east_in" to="west_in" />
    <trip id="car_143" type="car" depart="46.3" from="east_out" to="north_in" />
    <trip id="car_144" type="car" depart="286.6" from="west_out" to="east_in" />
    <trip id="car_145" type="car" depart="587.5" from="west_out" to="south_in" />
    <trip id="car_146" type="car" depart="24.1" from="south_out" to="east_in" />
    <trip id="car_147" type="car" depart="293.5" from="west_out" to="north_in" />
    <trip id="car_148" type="car" depart="140.5" from="south_out" to="west_out" />
    <trip id="car_149" type="car" depart="424.6" from="west_in" to="west_out" />
    <trip id="car_150" type="car" depart="371.2" from="east_in" to="west_out" />
    <trip id="car_151" type="car" depart="18.0" from="south_in" to="north_in" />
    <trip id="car_152" type="car" depart="597.4" from="north_out" to="west_in" />
    <trip id="car_153" type="car" depart="327.0" from="south_in" to="north_in" />
    <trip id="car_154" type="car" depart="160.3" from="west_out" to="west_in" />
    <trip id="car_155" type="car" depart="107.5" from="east_in" to="south_in" />
    <trip id="car_156" type="car" depart="94.0" from="east_out" to="south_in" />
    <trip id="car_157" type="car" depart="203.2" from="north_in" to="east_out" />
    <trip id="car_158" type="car" depart="196.9" from="west_in" to="south_out" />
    <trip id="car_159" type="car" depart="548.9" from="east_out" to="south_out" />
    <trip id="car_160" type="car" depart="350.8" from="east_out" to="south_out" />
    <trip id="car_161" type="car" depart="279.0" from="north_out" to="west_in" />
    <trip id="car_162" type="car" depart="554.4" from="east_in" to="north_in" />
    <trip id="car_163" type="car" depart="214.6" from="west_out" to="east_out" />
    <trip id="car_164" type="car" depart="347.5" from="west_out" to="north_out" />
    <trip id="car_165" type="car" depart="288.2" from="east_out" to="south_out" />
    <trip id="car_166" type="car" depart="265.5" from="west_in" to="north_in" />
    <trip id="car_167" type="car" depart="222.6" from="east_out" to="west_out" />
    <trip id="car_168" type="car" depart="372.0" from="north_out" to="west_out" />
    <trip id="car_169" type="car" depart="483.2" from="east_in" to="north_in" />
    <trip id="car_170" type="car" depart="447.7" from="north_out" to="west_out" />
    <trip id="car_171" type="car" depart="10.1" from="west_in" to="north_out" />
    <trip id="car_172" type="car" depart="198.9" from="south_out" to="south_in" />
    <trip id="car_173" type="car" depart="429.0" from="east_out" to="south_in" />
    <trip id="car_174" type="car" depart="436.8" from="east_in" to="north_in" />
    <trip id="car_175" type="car" depart="371.1" from="south_in" to="south_out" />
    <trip id="car_176" type="car" depart="528.1" from="north_in" to="west_in" />
    <trip id="car_177" type="car" depart="290.2" from="east_out" to="south_out" />
    <trip id="car_178" type="car" depart="520.8" from="east_in" to="west_out" />
    <trip id="car_179" type="car" depart="1.6" from="north_out" to="east_out" />
    <trip id="car_180" type="car" depart="136.9" from="west_in" to="south_in" />
    <trip id="car_181" type="car" depart="54.7" from="north_out" to="west_out" />
    <trip id="car_182" type="car" depart="563.9" from="north_in" to="south_in" />
    <trip id="car_183" type="car" depart="400.2" from="south_in" to="west_out" />
    <trip id="car_184" type="car" depart="180.4" from="west_in" to="east_out" />
    <trip id="car_185" type="car" depart="100.2" from="east_out" to="north_in" />
    <trip id="car_186" type="car" depart="383.7" from="north_out" to="south_in" />
    <trip id="car_187" type="car" depart="355.5" from="south_in" to="east_out" />
    <trip id="car_188" type="car" depart="171.3" from="east_out" to="west_in" />
    <trip id="car_189" type="car" depart="554.8" from="west_out" to="south_out" />
    <trip id="car_190" type="car" depart="529.2" from="south_out" to="west_out" />
    <trip id="car_191" type="car" depart="339.8" from="east_in" to="south_in" />
    <trip id="car_192" type="car" depart="126.4" from="north_out" to="east_out" />
    <trip id="car_193" type="car" depart="532.5" from="west_out" to="east_out" />
    <trip id="car_194" type="car" depart="260.6" from="east_out" to="south_in" />
    <trip id="car_195" type="car" depart="187.5" from="east_out" to="north_in" />
    <trip id="car_196" type="car" depart="487.8" from="south_out" to="east_in" />
    <trip id="car_197" type="car" depart="505.0" from="west_out" to="south_out" />
    <trip id="car_198" type="car" depart="529.1" from="west_in" to="east_out" />
    <trip id="car_199" type="car" depart="60.7" from="east_out" to="north_out" />
    <trip id="car_200" type="car" depart="111.1" from="west_in" to="east_in" />
    <trip id="car_201" type="car" depart="362.7" from="west_in" to="south_out" />
    <trip id="car_202" type="car" depart="292.6" from="north_out" to="north_in" />
    <trip id="car_203" type="car" depart="189.7" from="west_in" to="south_in" />
    <trip id="car_204" type="car" depart="477.5" from="west_in" to="north_in" />
    <trip id="car_205" type="car" depart="137.2" from="north_in" to="south_out" />
    <trip id="car_206" type="car" depart="38.7" from="west_in" to="east_in" />
    <trip id="car_207" type="car" depart="137.7" from="west_out" to="south_in" />
    <trip id="car_208" type="car" depart="321.4" from="west_in" to="south_out" />
    <trip id="car_209" type="car" depart="150.8" from="south_out" to="west_in" />
    <trip id="car_210" type="car" depart="80.3" from="north_out" to="west_out" />
    <trip id="car_211" type="car" depart="262.2" from="west_out" to="north_out" />
    <trip id="car_212" type="car" depart="249.8" from="south_in" to="west_out" />
    <trip id="car_213" type="car" depart="272.4" from="north_out" to="south_out" />
    <trip id="car_214" type="car" depart="289.4" from="north_out" to="south_out" />
    <trip id="car_215" type="car" depart="308.4" from="south_in" to="west_in" />
    <trip id="car_216" type="car" depart="546.8" from="west_in" to="north_out" />
    <trip id="car_217" type="car" depart="199.5" from="east_in" to="south_in" />
    <trip id="car_218" type="car" depart="135.1" from="east_in" to="north_in" />
    <trip id="car_219" type="car" depart="566.3" from="south_out" to="west_in" />
    <trip id="car_220" type="car" depart="497.7" from="north_in" to="south_out" />
    <trip id="car_221" type="car" depart="504.3" from="east_out" to="west_in" />
    <trip id="car_222" type="car" depart="262.1" from="south_in" to="west_in" />
    <trip id="car_223" type="car" depart="366.4" from="south_in" to="east_in" />
    <trip id="car_224" type="car" depart="163.9" from="east_out" to="west_out" />
    <trip id="car_225" type="car" depart="279.3" from="west_in" to="south_out" />
    <trip id="car_226" type="car" depart="577.8" from="north_in" to="east_in" />
    <trip id="car_227" type="car" depart="78.6" from="east_out" to="north_in" />
    <trip id="car_228" type="car" depart="508.8" from="south_in" to="west_out" />
    <trip id="car_229" type="car" depart="317.5" from="west_in" to="north_in" />
    <trip id="car_230" type="car" depart="132.8" from="west_out" to="west_in" />
    <trip id="car_231" type="car" depart="575.8" from="west_in" to="east_out" />
    <trip id="car_232" type="car" depart="98.0" from="west_in" to="south_out" />
    <trip id="car_233" type="car" depart="244.1" from="south_in" to="west_in" />
    <trip id="car_234" type="car" depart="319.7" from="west_out" to="west_in" />
    <trip id="car_235" type="car" depart="212.1" from="east_in" to="west_out" />
    <trip id="car_236" type="car" depart="385.0" from="west_out" to="east_out" />
    <trip id="car_237" type="car" depart="63.6" from="east_in" to="west_out" />
    <trip id="car_238" type="car" depart="471.8" from="north_in" to="west_out" />
    <trip id="car_239" type="car" depart="382.6" from="east_in" to="north_in" />
    <trip id="car_240" type="car" depart="158.1" from="south_out" to="north_out" />
    <trip id="car_241" type="car" depart="125.6" from="west_out" to="north_out" />
    <trip id="car_242" type="car" depart="484.7" from="east_out" to="south_in" />
    <trip id="car_243" type="car" depart="446.0" from="north_in" to="south_out" />
    <trip id="car_244" type="car" depart="117.0" from="east_in" to="east_out" />
    <trip id="car_245" type="car" depart="415.8" from="east_in" to="north_out" />
    <trip id="car_246" type="car" depart="297.5" from="north_in" to="west_out" />
    <trip id="car_247" type="car" depart="335.3" from="south_out" to="west_in" />
    <trip id="car_248" type="car" depart="322.0" from="north_out" to="east_in" />
    <trip id="car_249" type="car" depart="90.5" from="east_in" to="west_in" />
    <trip id="car_250" type="car" depart="227.1" from="south_out" to="west_out" />
    <trip id="car_251" type="car" depart="87.0" from="east_in" to="north_in" />
    <trip id="car_252" type="car" depart="17.3" from="south_out" to="west_out" />
    <trip id="car_253" type="car" depart="129.4" from="north_out" to="east_in" />
    <trip id="car_254" type="car" depart="130.7" from="west_out" to="south_out" />
    <trip id="car_255" type="car" depart="503.3" from="west_in" to="north_out" />
    <trip id="car_256" type="car" depart="65.8" from="south_in" to="west_in" />
    <trip id="car_257" type="car" depart="559.6" from="west_in" to="south_in" />
    <trip id="car_258" type="car" depart="508.3" from="east_out" to="north_in" />
    <trip id="car_259" type="car" depart="446.7" from="south_out" to="west_out" />
    <trip id="car_260" type="car" depart="12.8" from="north_out" to="west_in" />
    <trip id="car_261" type="car" depart="584.0" from="east_out" to="north_in" />
    <trip id="car_262" type="car" depart="548.5" from="north_out" to="south_in" />
    <trip id="car_263" type="car" depart="574.0" from="west_out" to="east_out" />
    <trip id="car_264" type="car" depart="160.5" from="west_out" to="south_in" />
    <trip id="car_265" type="car" depart="57.4" from="north_out" to="south_in" />
    <trip id="car_266" type="car" depart="403.1" from="east_out" to="south_out" />
    <trip id="car_267" type="car" depart="337.0" from="east_in" to="north_in" />
    <trip id="car_268" type="car" depart="59.3" from="west_in" to="south_out" />
    <trip id="car_269" type="car" depart="90.7" from="west_out" to="west_in" />
    <trip id="car_270" type="car" depart="459.8" from="west_in" to="west_out" />
    <trip id="car_271" type="car" depart="73.1" from="west_out" to="north_out" />
    <trip id="car_272" type="car" depart="351.4" from="south_out" to="north_out" />
    <trip id="car_273" type="car" depart="16.0" from="east_out" to="north_out" />
    <trip id="car_274" type="car" depart="261.8" from="west_out" to="north_in" />
    <trip id="car_275" type="car" depart="545.3" from="north_out" to="south_out" />
    <trip id="car_276" type="car" depart="70.8" from="east_in" to="east_out" />
    <trip id="car_277" type="car" depart="51.2" from="north_in" to="west_out" />
    <trip id="car_278" type="car" depart="106.7" from="south_in" to="north_out" />
    <trip id="car_279" type="car" depart="323.6" from="north_out" to="east_in" />
    <trip id="car_280" type="car" depart="81.3" from="east_in" to="north_out" />
    <trip id="car_281" type="car" depart="61.2" from="north_out" to="north_in" />
    <trip id="car_282" type="car" depart="554.4" from="south_out" to="west_in" />
    <trip id="car_283" type="car" depart="336.0" from="west_out" to="south_out" />
    <trip id="car_284" type="car" depart="495.0" from="west_out" to="north_out" />
    <trip id="car_285" type="car" depart="407.5" from="south_in" to="north_out" />
    <trip id="car_286" type="car" depart="481.9" from="west_out" to="south_out" />
    <trip id="car_287" type="car" depart="153.1" from="west_out" to="south_in" />
    <trip id="car_288" type="car" depart="58.3" from="west_out" to="south_out" />
    <trip id="car_289" type="car" depart="314.0" from="south_out" to="south_in" />
    <trip id="car_290" type="car" depart="534.5" from="north_out" to="west_in" />
    <trip id="car_291" type="car" depart="216.9" from="north_in" to="south_out" />
    <trip id="car_292" type="car" depart="199.3" from="north_out" to="south_in" />
    <trip id="car_293" type="car" depart="525.7" from="east_in" to="west_in" />
    <trip id="car_294" type="car" depart="167.1" from="north_in" to="east_out" />
    <trip id="car_295" type="car" depart="506.6" from="east_out" to="south_out" />
    <trip id="car_296" type="car" depart="427.5" from="north_in" to="south_out" />
    <trip id="car_297" type="car" depart="358.8" from="west_in" to="south_out" />
    <trip id="car_298" type="car" depart="356.9" from="east_in" to="north_out" />
    <trip id="car_299" type="car" depart="275.9" from="east_out" to="east_in" />
    <trip id="car_300" type="car" depart="193.5" from="west_out" to="north_in" />
    <trip id="car_301" type="car" depart="442.7" from="east_out" to="east_in" />
    <trip id="car_302" type="car" depart="509.2" from="south_out" to="west_in" />
    <trip id="car_303" type="car" depart="348.2" from="east_in" to="east_out" />
    <trip id="car_304" type="car" depart="364.4" from="east_out" to="south_in" />
    <trip id="car_305" type="car" depart="548.7" from="west_out" to="south_out" />
    <trip id="car_306" type="car" depart="114.3" from="north_in" to="south_in" />
    <trip id="car_307" type="car" depart="199.8" from="west_out" to="west_in" />
    <trip id="car_308" type="car" depart="569.0" from="south_in" to="north_in" />
    <trip id="car_309" type="car" depart="508.0" from="east_out" to="north_out" />
    <trip id="car_310" type="car" depart="20.3" from="west_in" to="east_out" />
    <trip id="car_311" type="car" depart="91.7" from="north_in" to="south_out" />
    <trip id="car_312" type="car" depart="371.3" from="north_out" to="west_out" />
    <trip id="car_313" type="car" depart="469.1" from="west_out" to="north_in" />
    <trip id="car_314" type="car" depart="332.8" from="west_in" to="north_in" />
    <trip id="car_315" type="car" depart="95.0" from="west_out" to="east_out" />
    <trip id="car_316" type="car" depart="86.0" from="east_out" to="north_in" />
    <trip id="car_317" type="car" depart="564.6" from="south_out" to="north_out" />
    <trip id="car_318" type="car" depart="468.9" from="west_in" to="west_out" />
    <trip id="car_319" type="car" depart="456.3" from="south_out" to="south_in" />
    <trip id="car_320" type="car" depart="230.4" from="east_in" to="north_in" />
    <trip id="car_321" type="car" depart="326.9" from="west_out" to="east_in" />
    <trip id="car_322" type="car" depart="595.7" from="west_out" to="north_out" />
    <trip id="car_323" type="car" depart="293.5" from="north_in" to="west_in" />
    <trip id="car_324" type="car" depart="368.3" from="south_in" to="west_out" />
    <trip id="car_325" type="car" depart="501.1" from="south_in" to="north_in" />
    <trip id="car_326" type="car" depart="387.8" from="east_in" to="west_out" />
    <trip id="car_327" type="car" depart="265.1" from="south_in" to="east_in" />
    <trip id="car_328" type="car" depart="437.2" from="east_in" to="north_in" />
    <trip id="car_329" type="car" depart="555.5" from="north_out" to="south_in" />
    <trip id="car_330" type="car" depart="286.0" from="east_in" to="north_out" />
    <trip id="car_331" type="car" depart="392.8" from="south_in" to="north_in" />
    <trip id="car_332" type="car" depart="144.1" from="east_out" to="west_out" />
    <trip id="car_333" type="car" depart="221.7" from="north_out" to="west_out" />
    <trip id="car_334" type="car" depart="105.5" from="north_out" to="south_in" />
    <trip id="car_335" type="car" depart="385.1" from="west_in" to="south_out" />
    <trip id="car_336" type="car" depart="520.1" from="north_in" to="west_out" />
    <trip id="car_337" type="car" depart="497.5" from="west_out" to="east_out" />
    <trip id="car_338" type="car" depart="389.7" from="east_out" to="west_out" />
    <trip id="car_339" type="car" depart="356.6" from="south_out" to="west_in" />
    <trip id="car_340" type="car" depart="39.7" from="east_out" to="north_in" />
    <trip id="car_341" type="car" depart="363.3" from="west_out" to="south_in" />
    <trip id="car_342" type="car" depart="330.4" from="west_out" to="north_in" />
    <trip id="car_343" type="car" depart="260.4" from="south_out" to="north_in" />
    <trip id="car_344" type="car" depart="487.4" from="west_in" to="east_in" />
    <trip id="car_345" type="car" depart="76.4" from="west_in" to="south_in" />
    <trip id="car_346" type="car" depart="590.3" from="west_in" to="north_in" />
    <trip id="car_347" type="car" depart="126.6" from="west_in" to="east_out" />
    <trip id="car_348" type="car" depart="344.5" from="east_in" to="east_out" />
    <trip id="car_349" type="car" depart="491.5" from="north_in" to="east_in" />
    <trip id="car_350" type="car" depart="585.6" from="west_in" to="east_out" />
    <trip id="car_351" type="car" depart="570.1" from="east_in" to="north_in" />
    <trip id="car_352" type="car" depart="535.3" from="south_out" to="east_out" />
    <trip id="car_353" type="car" depart="424.4" from="east_in" to="south_out" />
    <trip id="car_354" type="car" depart="141.0" from="west_out" to="west_in" />
    <trip id="car_355" type="car" depart="503.3" from="east_out" to="east_in" />
    <trip id="car_356" type="car" depart="113.9" from="south_in" to="east_in" />
    <trip id="car_357" type="car" depart="394.8" from="east_in" to="north_in" />
    <trip id="car_358" type="car" depart="357.6" from="north_in" to="west_in" />
    <trip id="car_359" type="car" depart="136.3" from="north_in" to="west_in" />
    <trip id="car_360" type="car" depart="446.3" from="east_in" to="west_out" />
    <trip id="car_361" type="car" depart="183.4" from="west_in" to="south_in" />
    <trip id="car_362" type="car" depart="103.2" from="south_out" to="east_in" />