<?xml version="1.0" encoding="UTF-8"?>
<additional>
    <tlLogic id="center" type="static" programID="0" offset="0">
        <!-- Phase 0: NS Straight + Right (Green) -->
        <phase duration="30" state="GGrrrrGGrrrr"/>
        
        <!-- Phase 1: NS Yellow -->
        <phase duration="3" state="yyrrrryyrrrr"/>
        
        <!-- Phase 2: NS Left Turn ONLY (Green) -->
        <phase duration="15" state="rrGrrrrrGrrr"/>
        
        <!-- Phase 3: NS Left Yellow -->
        <phase duration="3" state="rryrrrrryrrr"/>
        
        <!-- Phase 4: EW Straight + Right (Green) -->
        <phase duration="30" state="rrrrGGrrrrGG"/>
        
        <!-- Phase 5: EW Yellow -->
        <phase duration="3" state="rrrryyrrrryy"/>
        
        <!-- Phase 6: EW Left Turn ONLY (Green) -->
        <phase duration="15" state="rrrrrGrrrrrG"/>
        
        <!-- Phase 7: EW Left Yellow -->
        <phase duration="3" state="rrrrryrrrrry"/>
    </tlLogic>
</additional>
