<?xml version="1.0" ?>
<routes>
    <vType id="car" accel="2.6" decel="4.5" sigma="0.5" length="5" maxSpeed="50"/>
    <vType id="emergency" accel="3.5" decel="6.0" sigma="0" length="7" maxSpeed="70" color="1,0,0" vClass="emergency"/>
    <flow id="north_background" type="car" from="north_in" to="south_out" begin="0" end="600" vehsPerHour="400" departLane="best" departSpeed="max"/>
    <flow id="south_background" type="car" from="south_in" to="north_out" begin="0" end="600" vehsPerHour="400" departLane="best" departSpeed="max"/>
    <flow id="east_background" type="car" from="east_in" to="west_out" begin="0" end="600" vehsPerHour="400" departLane="best" departSpeed="max"/>
    <flow id="west_background" type="car" from="west_in" to="east_out" begin="0" end="600" vehsPerHour="400" departLane="best" departSpeed="max"/>
    <vehicle id="ambulance_0" type="emergency" depart="30" from="east_in" to="west_out" departLane="best" departSpeed="max"/>
    <vehicle id="ambulance_1" type="emergency" depart="60" from="east_in" to="west_out" departLane="best" departSpeed="max"/>
    <vehicle id="ambulance_2" type="emergency" depart="90" from="east_in" to="west_out" departLane="best" departSpeed="max"/>
    <vehicle id="ambulance_3" type="emergency" depart="120" from="east_in" to="west_out" departLane="best" departSpeed="max"/>
    <vehicle id="ambulance_4" type="emergency" depart="150" from="east_in" to="west_out" departLane="best" departSpeed="max"/>
</routes>
